Results/Brussels debug 23_05/no conductors/Brussels_3sub_graph_fucked/network_debug.txt
Pandapower Network Debug Info
==================================================

BUS:
          name  vn_kv type  zone  in_service   geo
0       Bus 27   15.0    b  None        True  None
1        Bus 7   15.0    b  None        True  None
2        Bus 5    0.4    b  None        True  None
3       Bus 13    0.4    b  None        True  None
4       Bus 10    0.4    b  None        True  None
5       Bus 35   15.0    b  None        True  None
6       Bus 15    0.4    b  None        True  None
7        Bus 1    0.4    b  None        True  None
8       Bus 36    0.4    b  None        True  None
9        Bus 3   15.0    b  None        True  None
10      Bus 30    0.4    b  None        True  None
11      Bus 11   15.0    b  None        True  None
12      Bus 31   15.0    b  None        True  None
13      Bus 12    0.4    b  None        True  None
14       Bus 9    0.4    b  None        True  None
15      Bus 28    0.4    b  None        True  None
16       Bus 8    0.4    b  None        True  None
17      Bus 26   15.0    b  None        True  None
18      Bus 16    0.4    b  None        True  None
19      Bus 38    0.4    b  None        True  None
20      Bus 29    0.4    b  None        True  None
21       Bus 6   15.0    b  None        True  None
22       Bus 2    0.4    b  None        True  None
23       Bus 4   15.0    b  None        True  None
24      Bus 40   15.0    b  None        True  None
25      Bus 32   15.0    b  None        True  None
26      Bus 34    0.4    b  None        True  None
27      Bus 14    0.4    b  None        True  None
28      Bus 33   15.0    b  None        True  None
29      Bus 39   15.0    b  None        True  None
30      Bus 37   15.0    b  None        True  None
31      Bus 19    0.4    b  None        True  None
32      Bus 20    0.4    b  None        True  None
33      Bus 24   15.0    b  None        True  None
34      Bus 21   15.0    b  None        True  None
35      Bus 18    0.4    b  None        True  None
36      Bus 23    0.4    b  None        True  None
37      Bus 47   15.0    b  None        True  None
38      Bus 45    0.4    b  None        True  None
39      Bus 41    0.4    b  None        True  None
40      Bus 22   15.0    b  None        True  None
41      Bus 17   15.0    b  None        True  None
42      Bus 42   15.0    b  None        True  None
43      Bus 49    0.4    b  None        True  None
44      Bus 50    0.4    b  None        True  None
45      Bus 46   15.0    b  None        True  None
46      Bus 48    0.4    b  None        True  None
47      Bus 25    0.4    b  None        True  None
48      Bus 43   15.0    b  None        True  None
49      Bus 44    0.4    b  None        True  None
50   Sub MV 51   15.0    b  None        True  None
51   Sub LV 51    0.4    b  None        True  None
52   Sub MV 52   15.0    b  None        True  None
53   Sub LV 52    0.4    b  None        True  None
54   Sub MV 53   15.0    b  None        True  None
55   Sub LV 53    0.4    b  None        True  None
56   Sub MV 54   15.0    b  None        True  None
57   Sub LV 54    0.4    b  None        True  None
58   Sub MV 55   15.0    b  None        True  None
59   Sub LV 55    0.4    b  None        True  None
60   Sub MV 57   15.0    b  None        True  None
61   Sub LV 57    0.4    b  None        True  None
62   Sub MV 58   15.0    b  None        True  None
63   Sub LV 58    0.4    b  None        True  None
64   Sub MV 60   15.0    b  None        True  None
65   Sub LV 60    0.4    b  None        True  None
66   Sub MV 61   15.0    b  None        True  None
67   Sub LV 61    0.4    b  None        True  None
68   Sub MV 62   15.0    b  None        True  None
69   Sub LV 62    0.4    b  None        True  None
70  Slack HV 0   70.0    b  None        True  None
71  Slack MV 0   15.0    b  None        True  None
--------------------------------------------------

LOAD:
             name  bus      p_mw        q_mvar  const_z_percent  const_i_percent  sn_mva  scaling  in_service type
0      Load 27 T1    0  0.126879  6.942109e-02              0.0              0.0     NaN      1.0        True  wye
1      Load 27 T2    0  0.126879  6.811065e-02              0.0              0.0     NaN      1.0        True  wye
2      Load 27 T3    0  0.126879  6.666118e-02              0.0              0.0     NaN      1.0        True  wye
3      Load 27 T4    0  0.126879  6.759290e-02              0.0              0.0     NaN      1.0        True  wye
4      Load 27 T5    0  0.128051  6.901496e-02              0.0              0.0     NaN      1.0        True  wye
5      Load 27 T6    0  0.146279  8.077993e-02              0.0              0.0     NaN      1.0        True  wye
6      Load 27 T7    0  0.165314  8.931830e-02              0.0              0.0     NaN      1.0        True  wye
7      Load 27 T8    0  0.297653  1.617243e-01              0.0              0.0     NaN      1.0        True  wye
8      Load 27 T9    0  0.295589  1.433258e-01              0.0              0.0     NaN      1.0        True  wye
9     Load 27 T10    0  0.293371  1.137898e-01              0.0              0.0     NaN      1.0        True  wye
10    Load 27 T11    0  0.292160  1.057448e-01              0.0              0.0     NaN      1.0        True  wye
11    Load 27 T12    0  0.273688  1.014497e-01              0.0              0.0     NaN      1.0        True  wye
12    Load 27 T13    0  0.294119  1.102821e-01              0.0              0.0     NaN      1.0        True  wye
13    Load 27 T14    0  0.293489  1.067759e-01              0.0              0.0     NaN      1.0        True  wye
14    Load 27 T15    0  0.293984  1.057466e-01              0.0              0.0     NaN      1.0        True  wye
15    Load 27 T16    0  0.296294  1.073555e-01              0.0              0.0     NaN      1.0        True  wye
16    Load 27 T17    0  0.196921  6.344459e-02              0.0              0.0     NaN      1.0        True  wye
17    Load 27 T18    0  0.165176  5.984502e-02              0.0              0.0     NaN      1.0        True  wye
18    Load 27 T19    0  0.166539  7.657266e-02              0.0              0.0     NaN      1.0        True  wye
19    Load 27 T20    0  0.156927  7.836783e-02              0.0              0.0     NaN      1.0        True  wye
20    Load 27 T21    0  0.156927  8.027737e-02              0.0              0.0     NaN      1.0        True  wye
21    Load 27 T22    0  0.147034  7.836532e-02              0.0              0.0     NaN      1.0        True  wye
22    Load 27 T23    0  0.142088  8.272958e-02              0.0              0.0     NaN      1.0        True  wye
23    Load 27 T24    0  0.126879  6.878340e-02              0.0              0.0     NaN      1.0        True  wye
24      Load 7 T1    1  0.125313  7.532193e-02              0.0              0.0     NaN      1.0        True  wye
25      Load 7 T2    1  0.125313  7.402768e-02              0.0              0.0     NaN      1.0        True  wye
26      Load 7 T3    1  0.125313  7.259610e-02              0.0              0.0     NaN      1.0        True  wye
27      Load 7 T4    1  0.125313  7.351632e-02              0.0              0.0     NaN      1.0        True  wye
28      Load 7 T5    1  0.126470  7.492082e-02              0.0              0.0     NaN      1.0        True  wye
29      Load 7 T6    1  0.144473  8.654055e-02              0.0              0.0     NaN      1.0        True  wye
30      Load 7 T7    1  0.163289  9.497351e-02              0.0              0.0     NaN      1.0        True  wye
31      Load 7 T8    1  0.294124  1.664856e-01              0.0              0.0     NaN      1.0        True  wye
32      Load 7 T9    1  0.292253  1.483142e-01              0.0              0.0     NaN      1.0        True  wye
33     Load 7 T10    1  0.290281  1.194793e-01              0.0              0.0     NaN      1.0        True  wye
34     Load 7 T11    1  0.289204  1.114840e-01              0.0              0.0     NaN      1.0        True  wye
35     Load 7 T12    1  0.271106  1.071820e-01              0.0              0.0     NaN      1.0        True  wye
36     Load 7 T13    1  0.290946  1.157392e-01              0.0              0.0     NaN      1.0        True  wye
37     Load 7 T14    1  0.290386  1.125084e-01              0.0              0.0     NaN      1.0        True  wye
38     Load 7 T15    1  0.290826  1.113096e-01              0.0              0.0     NaN      1.0        True  wye
39     Load 7 T16    1  0.292881  1.127881e-01              0.0              0.0     NaN      1.0        True  wye
40     Load 7 T17    1  0.194580  6.941922e-02              0.0              0.0     NaN      1.0        True  wye
41     Load 7 T18    1  0.163168  6.586409e-02              0.0              0.0     NaN      1.0        True  wye
42     Load 7 T19    1  0.164491  8.238521e-02              0.0              0.0     NaN      1.0        True  wye
43     Load 7 T20    1  0.154990  8.415823e-02              0.0              0.0     NaN      1.0        True  wye
44     Load 7 T21    1  0.154990  8.604419e-02              0.0              0.0     NaN      1.0        True  wye
45     Load 7 T22    1  0.145219  8.415574e-02              0.0              0.0     NaN      1.0        True  wye
46     Load 7 T23    1  0.140334  8.846612e-02              0.0              0.0     NaN      1.0        True  wye
47     Load 7 T24    1  0.125313  7.469212e-02              0.0              0.0     NaN      1.0        True  wye
48      Load 5 T1    2  0.002462 -6.780226e-07              0.0              0.0     NaN      1.0        True  wye
49      Load 5 T2    2  0.002385 -6.568596e-07              0.0              0.0     NaN      1.0        True  wye
50      Load 5 T3    2  0.002385 -6.568596e-07              0.0              0.0     NaN      1.0        True  wye
51      Load 5 T4    2  0.002387 -6.573267e-07              0.0              0.0     NaN      1.0        True  wye
52      Load 5 T5    2  0.003566 -9.819373e-07              0.0              0.0     NaN      1.0        True  wye
53      Load 5 T6    2  0.008369 -5.294496e-06              0.0              0.0     NaN      1.0        True  wye
54      Load 5 T7    2  0.010831 -9.181481e-06              0.0              0.0     NaN      1.0        True  wye
55      Load 5 T8    2  0.008841 -8.794789e-04              0.0              0.0     NaN      1.0        True  wye
56      Load 5 T9    2  0.007814 -4.258819e-04              0.0              0.0     NaN      1.0        True  wye
57     Load 5 T10    2  0.003844 -1.080336e-06              0.0              0.0     NaN      1.0        True  wye
58     Load 5 T11    2  0.003449 -9.496516e-07              0.0              0.0     NaN      1.0        True  wye
59     Load 5 T12    2  0.002994 -8.244849e-07              0.0              0.0     NaN      1.0        True  wye
60     Load 5 T13    2  0.003930 -1.160203e-06              0.0              0.0     NaN      1.0        True  wye
61     Load 5 T14    2  0.003785 -1.042218e-06              0.0              0.0     NaN      1.0        True  wye
62     Load 5 T15    2  0.003864 -1.098447e-06              0.0              0.0     NaN      1.0        True  wye
63     Load 5 T16    2  0.004712 -1.888716e-06              0.0              0.0     NaN      1.0        True  wye
64     Load 5 T17    2  0.007052 -4.067955e-06              0.0              0.0     NaN      1.0        True  wye
65     Load 5 T18    2  0.007236 -4.238808e-06              0.0              0.0     NaN      1.0        True  wye
66     Load 5 T19    2  0.007151 -4.159869e-06              0.0              0.0     NaN      1.0        True  wye
67     Load 5 T20    2  0.008148 -5.088386e-06              0.0              0.0     NaN      1.0        True  wye
68     Load 5 T21    2  0.007977 -4.929266e-06              0.0              0.0     NaN      1.0        True  wye
69     Load 5 T22    2  0.005072 -2.223737e-06              0.0              0.0     NaN      1.0        True  wye
70     Load 5 T23    2  0.002669 -7.349242e-07              0.0              0.0     NaN      1.0        True  wye
71     Load 5 T24    2  0.002526 -6.956584e-07              0.0              0.0     NaN      1.0        True  wye
72     Load 13 T1    3  0.020774  0.000000e+00              0.0              0.0     NaN      1.0        True  wye
73     Load 13 T2    3  0.020774  0.000000e+00              0.0              0.0     NaN      1.0        True  wye
74     Load 13 T3    3  0.020774  0.000000e+00              0.0              0.0     NaN      1.0        True  wye
75     Load 13 T4    3  0.020774  0.000000e+00              0.0              0.0     NaN      1.0        True  wye
76     Load 13 T5    3  0.021120  0.000000e+00              0.0              0.0     NaN      1.0        True  wye
77     Load 13 T6    3  0.026252  0.000000e+00              0.0              0.0     NaN      1.0        True  wye
78     Load 13 T7    3  0.034319  0.000000e+00              0.0              0.0     NaN      1.0        True  wye
79     Load 13 T8    3  0.077478  9.950376e-03              0.0              0.0     NaN      1.0        True  wye
80     Load 13 T9    3  0.072477  3.166554e-03              0.0              0.0     NaN      1.0        True  wye
81    Load 13 T10    3  0.069757 -1.653173e-04              0.0              0.0     NaN      1.0        True  wye
82    Load 13 T11    3  0.069429 -1.608717e-03              0.0              0.0     NaN      1.0        True  wye
83    Load 13 T12    3  0.064458 -2.276194e-03              0.0              0.0     NaN      1.0        True  wye
84    Load 13 T13    3  0.071794  0.000000e+00              0.0              0.0     NaN      1.0        True  wye
85    Load 13 T14    3  0.069862 -1.176936e-04              0.0              0.0     NaN      1.0        True  wye
86    Load 13 T15    3  0.070302 -8.001826e-05              0.0              0.0     NaN      1.0        True  wye
87    Load 13 T16    3  0.073487  0.000000e+00              0.0              0.0     NaN      1.0        True  wye
88    Load 13 T17    3  0.046367  0.000000e+00              0.0              0.0     NaN      1.0        True  wye
89    Load 13 T18    3  0.031335  0.000000e+00              0.0              0.0     NaN      1.0        True  wye
90    Load 13 T19    3  0.031993  0.000000e+00              0.0              0.0     NaN      1.0        True  wye
91    Load 13 T20    3  0.029311  0.000000e+00              0.0              0.0     NaN      1.0        True  wye
92    Load 13 T21    3  0.029305  0.000000e+00              0.0              0.0     NaN      1.0        True  wye
93    Load 13 T22    3  0.026467  0.000000e+00              0.0              0.0     NaN      1.0        True  wye
94    Load 13 T23    3  0.025048  0.000000e+00              0.0              0.0     NaN      1.0        True  wye
95    Load 13 T24    3  0.020774  0.000000e+00              0.0              0.0     NaN      1.0        True  wye
96     Load 10 T1    4  0.006925 -4.355399e-06              0.0              0.0     NaN      1.0        True  wye
97     Load 10 T2    4  0.006925 -4.355399e-06              0.0              0.0     NaN      1.0        True  wye
98     Load 10 T3    4  0.006925 -4.355399e-06              0.0              0.0     NaN      1.0        True  wye
99     Load 10 T4    4  0.006925 -4.355399e-06              0.0              0.0     NaN      1.0        True  wye
100    Load 10 T5    4  0.007040 -4.473866e-06              0.0              0.0     NaN      1.0        True  wye
101    Load 10 T6    4  0.008751 -6.231369e-06              0.0              0.0     NaN      1.0        True  wye
102    Load 10 T7    4  0.011416 -1.131097e-05              0.0              0.0     NaN      1.0        True  wye
103    Load 10 T8    4  0.025607  3.757845e-03              0.0              0.0     NaN      1.0        True  wye
104    Load 10 T9    4  0.023689  1.496571e-03              0.0              0.0     NaN      1.0        True  wye
105   Load 10 T10    4  0.022454 -4.214745e-05              0.0              0.0     NaN      1.0        True  wye
106   Load 10 T11    4  0.022165 -4.116203e-05              0.0              0.0     NaN      1.0        True  wye
107   Load 10 T12    4  0.020291 -3.477096e-05              0.0              0.0     NaN      1.0        True  wye
108   Load 10 T13    4  0.023244 -4.484066e-05              0.0              0.0     NaN      1.0        True  wye
109   Load 10 T14    4  0.022507 -4.232645e-05              0.0              0.0     NaN      1.0        True  wye
110   Load 10 T15    4  0.022727 -4.307658e-05              0.0              0.0     NaN      1.0        True  wye
111   Load 10 T16    4  0.024127 -4.785305e-05              0.0              0.0     NaN      1.0        True  wye
112   Load 10 T17    4  0.015321 -1.922921e-05              0.0              0.0     NaN      1.0        True  wye
113   Load 10 T18    4  0.010399 -9.249900e-06              0.0              0.0     NaN      1.0        True  wye
114   Load 10 T19    4  0.010652 -9.763374e-06              0.0              0.0     NaN      1.0        True  wye
115   Load 10 T20    4  0.009770 -7.975217e-06              0.0              0.0     NaN      1.0        True  wye
116   Load 10 T21    4  0.009768 -7.971103e-06              0.0              0.0     NaN      1.0        True  wye
117   Load 10 T22    4  0.008822 -6.304856e-06              0.0              0.0     NaN      1.0        True  wye
118   Load 10 T23    4  0.008349 -5.818952e-06              0.0              0.0     NaN      1.0        True  wye
119   Load 10 T24    4  0.006925 -4.355399e-06              0.0              0.0     NaN      1.0        True  wye
120    Load 35 T1    5  0.042413 -1.689555e-02              0.0              0.0     NaN      1.0        True  wye
121    Load 35 T2    5  0.042413 -1.733359e-02              0.0              0.0     NaN      1.0        True  wye
122    Load 35 T3    5  0.042413 -1.781811e-02              0.0              0.0     NaN      1.0        True  wye
123    Load 35 T4    5  0.042413 -1.750666e-02              0.0              0.0     NaN      1.0        True  wye
124    Load 35 T5    5  0.043119 -1.679514e-02              0.0              0.0     NaN      1.0        True  wye
125    Load 35 T6    5  0.053598 -9.632094e-03              0.0              0.0     NaN      1.0        True  wye
126    Load 35 T7    5  0.070068  3.407279e-04              0.0              0.0     NaN      1.0        True  wye
127    Load 35 T8    5  0.158183  5.237964e-02              0.0              0.0     NaN      1.0        True  wye
128    Load 35 T9    5  0.147973  3.852933e-02              0.0              0.0     NaN      1.0        True  wye
129   Load 35 T10    5  0.142421  2.261184e-02              0.0              0.0     NaN      1.0        True  wye
130   Load 35 T11    5  0.141750  1.984435e-02              0.0              0.0     NaN      1.0        True  wye
131   Load 35 T12    5  0.131601  1.899338e-02              0.0              0.0     NaN      1.0        True  wye
132   Load 35 T13    5  0.146579  2.211175e-02              0.0              0.0     NaN      1.0        True  wye
133   Load 35 T14    5  0.142635  1.903867e-02              0.0              0.0     NaN      1.0        True  wye
134   Load 35 T15    5  0.143533  1.851431e-02              0.0              0.0     NaN      1.0        True  wye
135   Load 35 T16    5  0.150037  2.038720e-02              0.0              0.0     NaN      1.0        True  wye
136   Load 35 T17    5  0.094667 -5.080210e-03              0.0              0.0     NaN      1.0        True  wye
137   Load 35 T18    5  0.063976 -1.525228e-02              0.0              0.0     NaN      1.0        True  wye
138   Load 35 T19    5  0.065320 -8.426064e-03              0.0              0.0     NaN      1.0        True  wye
139   Load 35 T20    5  0.059843 -8.941479e-03              0.0              0.0     NaN      1.0        True  wye
140   Load 35 T21    5  0.059830 -8.221795e-03              0.0              0.0     NaN      1.0        True  wye
141   Load 35 T22    5  0.054037 -1.040096e-02              0.0              0.0     NaN      1.0        True  wye
142   Load 35 T23    5  0.051139 -9.631314e-03              0.0              0.0     NaN      1.0        True  wye
143   Load 35 T24    5  0.042413 -1.710871e-02              0.0              0.0     NaN      1.0        True  wye
144    Load 15 T1    6  0.003486 -1.558101e-03              0.0              0.0     NaN      1.0        True  wye
145    Load 15 T2    6  0.003486 -5.123249e-04              0.0              0.0     NaN      1.0        True  wye
146    Load 15 T3    6  0.003486 -1.706649e-04              0.0              0.0     NaN      1.0        True  wye
147    Load 15 T4    6  0.003486 -1.742961e-04              0.0              0.0     NaN      1.0        True  wye
148    Load 15 T5    6  0.003486 -3.706186e-04              0.0              0.0     NaN      1.0        True  wye
149    Load 15 T6    6  0.003486 -1.090947e-03              0.0              0.0     NaN      1.0        True  wye
150    Load 15 T7    6  0.009066 -2.719449e-03              0.0              0.0     NaN      1.0        True  wye
151    Load 15 T8    6  0.014703 -1.062737e-02              0.0              0.0     NaN      1.0        True  wye
152    Load 15 T9    6  0.025557 -4.158341e-03              0.0              0.0     NaN      1.0        True  wye
153   Load 15 T10    6  0.022259 -1.008018e-03              0.0              0.0     NaN      1.0        True  wye
154   Load 15 T11    6  0.020167  4.894946e-04              0.0              0.0     NaN      1.0        True  wye
155   Load 15 T12    6  0.018323  1.336595e-03              0.0              0.0     NaN      1.0        True  wye
156   Load 15 T13    6  0.022169 -1.230225e-03              0.0              0.0     NaN      1.0        True  wye
157   Load 15 T14    6  0.021603 -1.046031e-03              0.0              0.0     NaN      1.0        True  wye
158   Load 15 T15    6  0.022811 -1.117957e-03              0.0              0.0     NaN      1.0        True  wye
159   Load 15 T16    6  0.026591 -1.371464e-03              0.0              0.0     NaN      1.0        True  wye
160   Load 15 T17    6  0.029402 -7.700694e-04              0.0              0.0     NaN      1.0        True  wye
161   Load 15 T18    6  0.022675 -4.143668e-04              0.0              0.0     NaN      1.0        True  wye
162   Load 15 T19    6  0.020153 -3.948428e-04              0.0              0.0     NaN      1.0        True  wye
163   Load 15 T20    6  0.020263 -3.737462e-04              0.0              0.0     NaN      1.0        True  wye
164   Load 15 T21    6  0.004057 -2.438084e-04              0.0              0.0     NaN      1.0        True  wye
165   Load 15 T22    6  0.003486 -1.786618e-04              0.0              0.0     NaN      1.0        True  wye
166   Load 15 T23    6  0.003486 -6.804533e-04              0.0              0.0     NaN      1.0        True  wye
167   Load 15 T24    6  0.003486 -1.424535e-03              0.0              0.0     NaN      1.0        True  wye
168     Load 1 T1    7  0.031660  3.513364e-03              0.0              0.0     NaN      1.0        True  wye
169     Load 1 T2    7  0.030395  3.279767e-03              0.0              0.0     NaN      1.0        True  wye
170     Load 1 T3    7  0.029763  1.883055e-03              0.0              0.0     NaN      1.0        True  wye
171     Load 1 T4    7  0.030286  4.717997e-03              0.0              0.0     NaN      1.0        True  wye
172     Load 1 T5    7  0.035517  6.819415e-03              0.0              0.0     NaN      1.0        True  wye
173     Load 1 T6    7  0.045499  9.953196e-03              0.0              0.0     NaN      1.0        True  wye
174     Load 1 T7    7  0.053790  1.329411e-02              0.0              0.0     NaN      1.0        True  wye
175     Load 1 T8    7  0.053815  6.244205e-03              0.0              0.0     NaN      1.0        True  wye
176     Load 1 T9    7  0.051262 -1.042921e-03              0.0              0.0     NaN      1.0        True  wye
177    Load 1 T10    7  0.048644 -5.023764e-03              0.0              0.0     NaN      1.0        True  wye
178    Load 1 T11    7  0.048738 -4.800835e-03              0.0              0.0     NaN      1.0        True  wye
179    Load 1 T12    7  0.047354 -4.275888e-03              0.0              0.0     NaN      1.0        True  wye
180    Load 1 T13    7  0.047080  8.659559e-03              0.0              0.0     NaN      1.0        True  wye
181    Load 1 T14    7  0.046168  1.178061e-02              0.0              0.0     NaN      1.0        True  wye
182    Load 1 T15    7  0.048674  1.383053e-02              0.0              0.0     NaN      1.0        True  wye
183    Load 1 T16    7  0.061084  1.646776e-02              0.0              0.0     NaN      1.0        True  wye
184    Load 1 T17    7  0.076499  1.826658e-02              0.0              0.0     NaN      1.0        True  wye
185    Load 1 T18    7  0.077583  1.610489e-02              0.0              0.0     NaN      1.0        True  wye
186    Load 1 T19    7  0.072461  1.306999e-02              0.0              0.0     NaN      1.0        True  wye
187    Load 1 T20    7  0.069968  1.036917e-02              0.0              0.0     NaN      1.0        True  wye
188    Load 1 T21    7  0.064691  9.051790e-03              0.0              0.0     NaN      1.0        True  wye
189    Load 1 T22    7  0.053092  8.349622e-03              0.0              0.0     NaN      1.0        True  wye
190    Load 1 T23    7  0.042802  5.881755e-03              0.0              0.0     NaN      1.0        True  wye
191    Load 1 T24    7  0.034189  4.398484e-03              0.0              0.0     NaN      1.0        True  wye
192    Load 36 T1    8  0.024236  3.674069e-03              0.0              0.0     NaN      1.0        True  wye
193    Load 36 T2    8  0.024236  3.423757e-03              0.0              0.0     NaN      1.0        True  wye
194    Load 36 T3    8  0.024236  3.146887e-03              0.0              0.0     NaN      1.0        True  wye
195    Load 36 T4    8  0.024236  3.324860e-03              0.0              0.0     NaN      1.0        True  wye
196    Load 36 T5    8  0.024639  3.731444e-03              0.0              0.0     NaN      1.0        True  wye
197    Load 36 T6    8  0.030628  7.824613e-03              0.0              0.0     NaN      1.0        True  wye
198    Load 36 T7    8  0.040039  1.352337e-02              0.0              0.0     NaN      1.0        True  wye
199    Load 36 T8    8  0.090390  4.325989e-02              0.0              0.0     NaN      1.0        True  wye
...

EXT_GRID:
        name  bus  vm_pu  va_degree  slack_weight  in_service
0  ExtGrid 0   70    1.0        0.0           1.0        True
--------------------------------------------------

LINE:
       name std_type  from_bus  to_bus  length_km  r_ohm_per_km  x_ohm_per_km  c_nf_per_km  g_us_per_km  max_i_ka   df  parallel  type  in_service   geo
0    Line 1     None         3       2   0.060828          0.09          0.19          0.0          0.0       3.0  1.0         1  None        True  None
1    Line 2     None        71      56   0.298271          0.09          0.19          0.0          0.0       3.0  1.0         1  None        True  None
2    Line 3     None         7       4   0.067082          0.09          0.19          0.0          0.0       3.0  1.0         1  None        True  None
3    Line 4     None        14      22   0.092195          0.09          0.19          0.0          0.0       3.0  1.0         1  None        True  None
4    Line 7     None        27      59   0.072338          0.09          0.19          0.0          0.0       3.0  1.0         1  None        True  None
5    Line 8     None        18      13   0.063246          0.09          0.19          0.0          0.0       3.0  1.0         1  None        True  None
6    Line 9     None        51      38   0.074183          0.09          0.19          0.0          0.0       3.0  1.0         1  None        True  None
7   Line 11     None        11       9   0.139284          0.09          0.19          0.0          0.0       3.0  1.0         1  None        True  None
8   Line 12     None        35      32   0.058310          0.09          0.19          0.0          0.0       3.0  1.0         1  None        True  None
9   Line 13     None         8      69   0.082031          0.09          0.19          0.0          0.0       3.0  1.0         1  None        True  None
10  Line 16     None        64      30   0.038016          0.09          0.19          0.0          0.0       3.0  1.0         1  None        True  None
11  Line 17     None        71      62   1.383808          0.09          0.19          0.0          0.0       3.0  1.0         1  None        True  None
12  Line 19     None         5       0   0.063246          0.09          0.19          0.0          0.0       3.0  1.0         1  None        True  None
13  Line 20     None         9      56   0.083039          0.09          0.19          0.0          0.0       3.0  1.0         1  None        True  None
14  Line 22     None         5      12   0.126491          0.09          0.19          0.0          0.0       3.0  1.0         1  None        True  None
15  Line 24     None        47      35   0.151327          0.09          0.19          0.0          0.0       3.0  1.0         1  None        True  None
16  Line 26     None        35      36   0.060000          0.09          0.19          0.0          0.0       3.0  1.0         1  None        True  None
17  Line 28     None        69      10   0.119560          0.09          0.19          0.0          0.0       3.0  1.0         1  None        True  None
18  Line 29     None        39      51   0.055150          0.09          0.19          0.0          0.0       3.0  1.0         1  None        True  None
19  Line 30     None        26      67   0.060670          0.09          0.19          0.0          0.0       3.0  1.0         1  None        True  None
20  Line 31     None        25      66   0.047966          0.09          0.19          0.0          0.0       3.0  1.0         1  None        True  None
21  Line 32     None        48      52   0.054218          0.09          0.19          0.0          0.0       3.0  1.0         1  None        True  None
22  Line 33     None        50      37   0.023163          0.09          0.19          0.0          0.0       3.0  1.0         1  None        True  None
23  Line 35     None        41      40   0.080000          0.09          0.19          0.0          0.0       3.0  1.0         1  None        True  None
24  Line 37     None        16      59   0.048610          0.09          0.19          0.0          0.0       3.0  1.0         1  None        True  None
25  Line 40     None        71      50   1.463256          0.09          0.19          0.0          0.0       3.0  1.0         1  None        True  None
26  Line 41     None        52      45   0.041013          0.09          0.19          0.0          0.0       3.0  1.0         1  None        True  None
27  Line 42     None        44      55   0.036846          0.09          0.19          0.0          0.0       3.0  1.0         1  None        True  None
28  Line 44     None        39      44   0.058310          0.09          0.19          0.0          0.0       3.0  1.0         1  None        True  None
29  Line 45     None        42      48   0.133417          0.09          0.19          0.0          0.0       3.0  1.0         1  None        True  None
30  Line 46     None         7      57   0.073295          0.09          0.19          0.0          0.0       3.0  1.0         1  None        True  None
31  Line 47     None        17      12   0.058310          0.09          0.19          0.0          0.0       3.0  1.0         1  None        True  None
32  Line 49     None        45      37   0.136015          0.09          0.19          0.0          0.0       3.0  1.0         1  None        True  None
33  Line 50     None        23      58   0.122459          0.09          0.19          0.0          0.0       3.0  1.0         1  None        True  None
34  Line 51     None        46      55   0.148488          0.09          0.19          0.0          0.0       3.0  1.0         1  None        True  None
35  Line 52     None        21      58   0.034481          0.09          0.19          0.0          0.0       3.0  1.0         1  None        True  None
36  Line 55     None        11      58   0.142904          0.09          0.19          0.0          0.0       3.0  1.0         1  None        True  None
37  Line 56     None        33      62   0.032270          0.09          0.19          0.0          0.0       3.0  1.0         1  None        True  None
38  Line 57     None         3       6   0.063246          0.09          0.19          0.0          0.0       3.0  1.0         1  None        True  None
39  Line 59     None        64      29   0.059266          0.09          0.19          0.0          0.0       3.0  1.0         1  None        True  None
40  Line 60     None         7      13   0.092195          0.09          0.19          0.0          0.0       3.0  1.0         1  None        True  None
41  Line 62     None        57       6   0.066289          0.09          0.19          0.0          0.0       3.0  1.0         1  None        True  None
42  Line 63     None        33      60   0.083550          0.09          0.19          0.0          0.0       3.0  1.0         1  None        True  None
43  Line 64     None        24      28   0.098489          0.09          0.19          0.0          0.0       3.0  1.0         1  None        True  None
44  Line 65     None        28      30   0.084853          0.09          0.19          0.0          0.0       3.0  1.0         1  None        True  None
45  Line 66     None        31      32   0.067082          0.09          0.19          0.0          0.0       3.0  1.0         1  None        True  None
46  Line 68     None        16      14   0.092195          0.09          0.19          0.0          0.0       3.0  1.0         1  None        True  None
47  Line 69     None        60      40   0.050508          0.09          0.19          0.0          0.0       3.0  1.0         1  None        True  None
48  Line 72     None         8      15   0.143178          0.09          0.19          0.0          0.0       3.0  1.0         1  None        True  None
49  Line 73     None        41      34   0.162788          0.09          0.19          0.0          0.0       3.0  1.0         1  None        True  None
50  Line 74     None        71      68   0.306825          0.09          0.19          0.0          0.0       3.0  1.0         1  None        True  None
51  Line 75     None        26      20   0.120416          0.09          0.19          0.0          0.0       3.0  1.0         1  None        True  None
52  Line 76     None        25      29   0.120416          0.09          0.19          0.0          0.0       3.0  1.0         1  None        True  None
53  Line 78     None        15      19   0.080623          0.09          0.19          0.0          0.0       3.0  1.0         1  None        True  None
54  Line 80     None        49      55   0.137807          0.09          0.19          0.0          0.0       3.0  1.0         1  None        True  None
55  Line 81     None        43      44   0.102956          0.09          0.19          0.0          0.0       3.0  1.0         1  None        True  None
56  Line 83     None        56       1   0.014358          0.09          0.19          0.0          0.0       3.0  1.0         1  None        True  None
57  Line 87     None        63      32   0.072281          0.09          0.19          0.0          0.0       3.0  1.0         1  None        True  None
58  Line 88     None        24      17   0.092195          0.09          0.19          0.0          0.0       3.0  1.0         1  None        True  None
--------------------------------------------------

TRAFO:
                    name std_type  hv_bus  lv_bus  sn_mva  vn_hv_kv  vn_lv_kv  vk_percent  vkr_percent  pfe_kw  i0_percent  shift_degree tap_side  tap_neutral  tap_min  tap_max  tap_step_percent  tap_step_degree  tap_pos tap_changer_type  id_characteristic_table  tap_dependency_table  parallel   df  in_service
0   MV/LV Transformer 51     None      50      51    10.0      15.0       0.4        0.01         0.01    0.01        0.01           0.0     None          NaN      NaN      NaN               NaN              NaN      NaN              NaN                     <NA>                 False         1  1.0        True
1   MV/LV Transformer 52     None      52      53    10.0      15.0       0.4        0.01         0.01    0.01        0.01           0.0     None          NaN      NaN      NaN               NaN              NaN      NaN              NaN                     <NA>                 False         1  1.0        True
2   MV/LV Transformer 53     None      54      55    10.0      15.0       0.4        0.01         0.01    0.01        0.01           0.0     None          NaN      NaN      NaN               NaN              NaN      NaN              NaN                     <NA>                 False         1  1.0        True
3   MV/LV Transformer 54     None      56      57    10.0      15.0       0.4        0.01         0.01    0.01        0.01           0.0     None          NaN      NaN      NaN               NaN              NaN      NaN              NaN                     <NA>                 False         1  1.0        True
4   MV/LV Transformer 55     None      58      59    10.0      15.0       0.4        0.01         0.01    0.01        0.01           0.0     None          NaN      NaN      NaN               NaN              NaN      NaN              NaN                     <NA>                 False         1  1.0        True
5   MV/LV Transformer 57     None      60      61    10.0      15.0       0.4        0.01         0.01    0.01        0.01           0.0     None          NaN      NaN      NaN               NaN              NaN      NaN              NaN                     <NA>                 False         1  1.0        True
6   MV/LV Transformer 58     None      62      63    10.0      15.0       0.4        0.01         0.01    0.01        0.01           0.0     None          NaN      NaN      NaN               NaN              NaN      NaN              NaN                     <NA>                 False         1  1.0        True
7   MV/LV Transformer 60     None      64      65    10.0      15.0       0.4        0.01         0.01    0.01        0.01           0.0     None          NaN      NaN      NaN               NaN              NaN      NaN              NaN                     <NA>                 False         1  1.0        True
8   MV/LV Transformer 61     None      66      67    10.0      15.0       0.4        0.01         0.01    0.01        0.01           0.0     None          NaN      NaN      NaN               NaN              NaN      NaN              NaN                     <NA>                 False         1  1.0        True
9   MV/LV Transformer 62     None      68      69    10.0      15.0       0.4        0.01         0.01    0.01        0.01           0.0     None          NaN      NaN      NaN               NaN              NaN      NaN              NaN                     <NA>                 False         1  1.0        True
10   Slack Transformer 0     None      70      71    40.0      70.0      15.0        0.01         0.01    0.01        0.01           0.0     None          NaN      NaN      NaN               NaN              NaN      NaN              NaN                     <NA>                 False         1  1.0        True
--------------------------------------------------

RES_BUS:
       vm_pu  va_degree      p_mw        q_mvar
0        NaN        NaN  0.000000  0.000000e+00
1   0.999898  -0.010389  0.125313  7.469212e-02
2   0.998087  -0.245356  0.002526 -6.956584e-07
3   0.998173  -0.234861  0.020774  0.000000e+00
4   0.996416  -0.372907  0.006925 -4.355399e-06
5        NaN        NaN  0.000000  0.000000e+00
6   0.999005  -0.134314  0.003486 -1.424535e-03
7   0.996678  -0.341073  0.034189  4.398484e-03
8   0.997055  -0.302536  0.024236  3.552262e-03
9   0.999886  -0.012468  0.248207 -1.270614e-02
10  0.998765  -0.149291  0.018177 -4.918261e-05
11  0.999875  -0.014347  0.017311 -1.109121e-02
12       NaN        NaN  0.000000  0.000000e+00
13  0.995274  -0.512214  0.025967  3.508161e-04
14  0.993052  -0.910804  0.018177 -7.307132e-04
15  0.994542  -0.610063  0.030295  2.037875e-04
16  0.997226  -0.397378  0.030295 -7.577870e-03
17       NaN        NaN  0.000000  0.000000e+00
18  0.995269  -0.517701  0.001058 -4.324020e-04
19  0.994537  -0.616191  0.000926 -3.783517e-04
20       NaN        NaN  0.000000  0.000000e+00
21  0.999862  -0.016289  0.098684 -7.577870e-03
22  0.989811  -1.309862  0.062324 -4.360215e-04
23  0.999861  -0.016297  0.030171  0.000000e+00
24       NaN        NaN  0.000000  0.000000e+00
25       NaN        NaN  0.000000  0.000000e+00
26       NaN        NaN  0.000000  0.000000e+00
27  1.000051  -0.061544  0.006681 -5.376674e-03
28       NaN        NaN  0.000000  0.000000e+00
29       NaN        NaN  0.000000  0.000000e+00
30       NaN        NaN  0.000000  0.000000e+00
31  0.997279  -0.330063  0.016157  0.000000e+00
32  0.997891  -0.255961  0.020196 -2.487758e-04
33  0.999881  -0.013637  0.003295 -1.372952e-04
34  0.999866  -0.015464  0.036354 -7.289356e-03
35  0.997472  -0.306741  0.010387  3.554701e-04
36  0.997469  -0.310196  0.000705 -2.882680e-04
37  0.999805  -0.022563  0.016157  1.932791e-03
38  0.999048  -0.114239  0.018177 -3.048272e-05
39  0.997107  -0.325343  0.010684  9.975722e-04
40  0.999873  -0.014599  0.002614 -7.496799e-03
41  0.999868  -0.015150  0.109649  1.486702e-02
42  0.999778  -0.025823  0.164473  0.000000e+00
43  0.993791  -0.716933  0.015580  0.000000e+00
44  0.994701  -0.606526  0.010845 -3.889889e-04
45  0.999794  -0.023891  0.012118 -2.922245e-03
46  0.991527  -0.983580  0.025967  0.000000e+00
47  0.997344  -0.324129  0.001648 -6.864761e-05
48  0.999787  -0.024761  0.024236 -1.521575e-04
49  0.992301  -0.890161  0.018177  0.000000e+00
50  0.999807  -0.022319  0.000000  0.000000e+00
51  0.999806  -0.022317  0.000000  0.000000e+00
52  0.999791  -0.024265  0.000000  0.000000e+00
53  0.999791  -0.024265  0.000000  0.000000e+00
54  0.993725  -0.717324  0.000000  0.000000e+00
55  0.993725  -0.717325  0.000000  0.000000e+00
56  0.999900  -0.010326  0.000000  0.000000e+00
57  0.999899  -0.010324  0.000000  0.000000e+00
58  0.999863  -0.016118  0.000000  0.000000e+00
59  0.999862  -0.016125  0.000000  0.000000e+00
60  0.999876  -0.014236  0.000000  0.000000e+00
61  0.999876  -0.014235  0.000000  0.000000e+00
62  0.999883  -0.013400  0.000000  0.000000e+00
63  0.999883  -0.013400  0.000000  0.000000e+00
64       NaN        NaN  0.000000  0.000000e+00
65       NaN        NaN  0.000000  0.000000e+00
66       NaN        NaN  0.000000  0.000000e+00
67       NaN        NaN  0.000000  0.000000e+00
68  0.999986  -0.001056  0.000000  0.000000e+00
69  0.999986  -0.001053  0.000000  0.000000e+00
70  1.000000   0.000000 -1.325464 -5.123408e-02
71  0.999997   0.000007  0.000000  0.000000e+00
--------------------------------------------------

RES_LINE:
    p_from_mw   q_from_mvar   p_to_mw     q_to_mvar         pl_mw       ql_mvar  i_from_ka   i_to_ka      i_ka  vm_from_pu  va_from_degree  vm_to_pu  va_to_degree  loading_percent
0    0.002526 -2.329327e-07 -0.002526  6.956584e-07  2.191859e-07  4.627257e-07   0.003653  0.003653  0.003653    0.998173       -0.234861  0.998087     -0.245356         0.121773
1    0.733362  3.673152e-02 -0.733298 -3.659572e-02  6.432790e-05  1.358033e-04   0.028263  0.028263  0.028263    0.999997        0.000007  0.999900     -0.010326         0.942086
2    0.006926 -5.082678e-07 -0.006925  4.355399e-06  1.822325e-06  3.847131e-06   0.010031  0.010031  0.010031    0.996678       -0.341073  0.996416     -0.372907         0.334354
3    0.062530 -1.941295e-06 -0.062324  4.360215e-04  2.056169e-04  4.340802e-04   0.090885  0.090885  0.090885    0.993052       -0.910804  0.989811     -1.309862         3.029504
4   -0.006681  5.376674e-03  0.006684 -5.370358e-03  2.992007e-06  6.316460e-06   0.012377  0.012377  0.012377    1.000051       -0.061544  0.999862     -0.016125         0.412568
5   -0.001058  4.324020e-04  0.001058 -4.323029e-04  4.692515e-08  9.906420e-08   0.001658  0.001658  0.001658    0.995269       -0.517701  0.995274     -0.512214         0.055257
6    0.018191 -1.321831e-06 -0.018177  3.048272e-05  1.381305e-05  2.916089e-05   0.026261  0.026261  0.026261    0.999806       -0.022317  0.999048     -0.114239         0.875368
7   -0.264550  2.989634e-02  0.264554 -2.988800e-02  3.950000e-06  8.338889e-06   0.010249  0.010249  0.010249    0.999875       -0.014347  0.999886     -0.012468         0.341621
8   -0.012740  9.126214e-07  0.012745  1.038296e-05  5.350537e-06  1.129558e-05   0.018435  0.018435  0.018435    0.997472       -0.306741  0.997891     -0.255961         0.614506
9   -0.055536 -3.545351e-03  0.055680  3.848801e-03  1.437395e-04  3.034501e-04   0.080559  0.080559  0.080559    0.997055       -0.302536  0.999986     -0.001053         2.685314
10   0.000000  0.000000e+00  0.000000  0.000000e+00  0.000000e+00  0.000000e+00        NaN       NaN       NaN         NaN             NaN       NaN           NaN              NaN
11   0.201164  1.985444e-03 -0.201142 -1.938151e-03  2.240176e-05  4.729260e-05   0.007743  0.007743  0.007743    0.999997        0.000007  0.999883     -0.013400         0.258107
12   0.000000  0.000000e+00  0.000000  0.000000e+00  0.000000e+00  0.000000e+00        NaN       NaN       NaN         NaN             NaN       NaN           NaN              NaN
13  -0.512761  4.259415e-02  0.512770 -4.257558e-02  8.795452e-06  1.856818e-05   0.019806  0.019806  0.019806    0.999886       -0.012468  0.999900     -0.010326         0.660214
14   0.000000  0.000000e+00  0.000000  0.000000e+00  0.000000e+00  0.000000e+00        NaN       NaN       NaN         NaN             NaN       NaN           NaN              NaN
15  -0.001648  6.864761e-05  0.001648 -6.815637e-05  2.326896e-07  4.912337e-07   0.002386  0.002386  0.002386    0.997344       -0.324129  0.997472     -0.306741         0.079547
16   0.000705 -2.882264e-04 -0.000705  2.882680e-04  1.969821e-08  4.158511e-08   0.001103  0.001103  0.001103    0.997472       -0.306741  0.997469     -0.310196         0.036757
17   0.018199 -2.157333e-06 -0.018177  4.918261e-05  2.227513e-05  4.702527e-05   0.026269  0.026269  0.026269    0.999986       -0.001053  0.998765     -0.149291         0.875618
18  -0.081567 -2.238722e-03  0.081775  2.677309e-03  2.077515e-04  4.385865e-04   0.118118  0.118118  0.118118    0.997107       -0.325343  0.999806     -0.022317         3.937277
19   0.000000  0.000000e+00  0.000000  0.000000e+00  0.000000e+00  0.000000e+00        NaN       NaN       NaN         NaN             NaN       NaN           NaN              NaN
20   0.000000  0.000000e+00  0.000000  0.000000e+00  0.000000e+00  0.000000e+00        NaN       NaN       NaN         NaN             NaN       NaN           NaN              NaN
21  -0.188710  1.491084e-04  0.188711 -1.474773e-04  7.726458e-07  1.631141e-06   0.007265  0.007265  0.007265    0.999787       -0.024761  0.999791     -0.024265         0.242167
22   0.217000 -1.306094e-04 -0.216999  1.315308e-04  4.364530e-07  9.214009e-07   0.008354  0.008354  0.008354    0.999807       -0.022319  0.999805     -0.022563         0.278464
23  -0.146003 -7.577853e-03  0.146003  7.579297e-03  6.841547e-07  1.444327e-06   0.005628  0.005628  0.005628    0.999868       -0.015150  0.999873     -0.014599         0.187598
24  -0.111344  7.587337e-03  0.111686 -6.864376e-03  3.424550e-04  7.229607e-04   0.161532  0.161532  0.161532    0.997226       -0.397378  0.999862     -0.016125         5.384387
25   0.317034  3.669152e-03 -0.316975 -3.544940e-03  5.883739e-05  1.242123e-04   0.012204  0.012204  0.012204    0.999997        0.000007  0.999807     -0.022319         0.406784
26  -0.188721 -8.520545e-04  0.188722  8.532885e-04  5.845396e-07  1.234028e-06   0.007265  0.007265  0.007265    0.999791       -0.024265  0.999794     -0.023891         0.242183
27   0.044278  1.250056e-03 -0.044237 -1.163287e-03  4.110109e-05  8.676896e-05   0.064276  0.064276  0.064276    0.994701       -0.606526  0.993725     -0.717325         2.142530
28   0.070883  1.241150e-03 -0.070717 -8.911168e-04  1.658052e-04  3.500332e-04   0.102624  0.102624  0.102624    0.997107       -0.325343  0.994701     -0.606526         3.420789
29  -0.164473 -9.997916e-13  0.164475  3.049050e-06  1.444286e-06  3.049049e-06   0.006332  0.006332  0.006332    0.999778       -0.025823  0.999787     -0.024761         0.211066
30  -0.068179 -4.397212e-03  0.068373  4.806191e-03  1.937271e-04  4.089794e-04   0.098941  0.098941  0.098941    0.996678       -0.341073  0.999899     -0.010324         3.298024
31   0.000000  0.000000e+00  0.000000  0.000000e+00  0.000000e+00  0.000000e+00        NaN       NaN       NaN         NaN             NaN       NaN           NaN              NaN
32  -0.200840  2.068957e-03  0.200842 -2.064321e-03  2.195685e-06  4.635336e-06   0.007732  0.007732  0.007732    0.999794       -0.023891  0.999805     -0.022563         0.257744
33  -0.030171  2.360478e-12  0.030171  9.415917e-08  4.460283e-08  9.416153e-08   0.001161  0.001161  0.001161    0.999861       -0.016297  0.999863     -0.016118         0.038715
34  -0.025967 -5.770666e-16  0.026024  1.209361e-04  5.728553e-05  1.209361e-04   0.037800  0.037800  0.037800    0.991527       -0.983580  0.993725     -0.717325         1.260010
35  -0.098684  7.577870e-03  0.098684 -7.577585e-03  1.351460e-07  2.853082e-07   0.003810  0.003810  0.003810    0.999862       -0.016289  0.999863     -0.016118         0.127002
36   0.247239 -1.880513e-02 -0.247235  1.881255e-02  3.515211e-06  7.421000e-06   0.009545  0.009545  0.009545    0.999875       -0.014347  0.999863     -0.016118         0.318164
37  -0.151924 -9.474059e-04  0.151924  9.480350e-04  2.980113e-07  6.291350e-07   0.005848  0.005848  0.005848    0.999881       -0.013637  0.999883     -0.013400         0.194946
38  -0.023300  2.329327e-07  0.023319  4.068944e-05  1.938428e-05  4.092238e-05   0.033692  0.033692  0.033692    0.998173       -0.234861  0.999005     -0.134314         1.123070
39   0.000000  0.000000e+00  0.000000  0.000000e+00  0.000000e+00  0.000000e+00        NaN       NaN       NaN         NaN             NaN       NaN           NaN              NaN
40   0.027063 -7.641620e-07 -0.027025  8.148680e-05  3.823704e-05  8.072263e-05   0.039193  0.039193  0.039193    0.996678       -0.341073  0.995274     -0.512214         1.306424
41   0.026832 -1.327022e-03 -0.026805  1.383846e-03  2.691674e-05  5.682424e-05   0.038780  0.038780  0.038780    0.999899       -0.010324  0.999005     -0.134314         1.292671
42   0.148629  1.084701e-03 -0.148628 -1.083142e-03  7.384846e-07  1.559023e-06   0.005722  0.005722  0.005722    0.999881       -0.013637  0.999876     -0.014236         0.190719
43   0.000000  0.000000e+00  0.000000  0.000000e+00  0.000000e+00  0.000000e+00        NaN       NaN       NaN         NaN             NaN       NaN           NaN              NaN
44   0.000000  0.000000e+00  0.000000  0.000000e+00  0.000000e+00  0.000000e+00        NaN       NaN       NaN         NaN             NaN       NaN           NaN              NaN
45  -0.016157 -2.574601e-15  0.016167  2.090924e-05  9.904376e-06  2.090924e-05   0.023385  0.023385  0.023385    0.997279       -0.330063  0.997891     -0.255961         0.779484
46   0.081049 -9.466875e-06 -0.080706  7.326545e-04  3.425626e-04  7.231877e-04   0.117310  0.117310  0.117310    0.997226       -0.397378  0.993052     -0.910804         3.910318
47   0.148618  8.343999e-05 -0.148618 -8.249771e-05  4.463448e-07  9.422836e-07   0.005721  0.005721  0.005721    0.999876       -0.014236  0.999873     -0.014599         0.190701
48   0.031300 -6.911018e-06 -0.031221  1.744674e-04  7.936879e-05  1.675563e-04   0.045311  0.045311  0.045311    0.997055       -0.302536  0.994542     -0.610063         1.510370
49   0.036354 -7.289167e-03 -0.036354  7.289356e-03  8.953954e-08  1.890279e-07   0.001427  0.001427  0.001427    0.999868       -0.015150  0.999866     -0.015464         0.047577
50   0.073889  4.847987e-03 -0.073889 -4.846566e-03  6.729496e-07  1.420671e-06   0.002850  0.002850  0.002850    0.999997        0.000007  0.999986     -0.001056         0.095004
51   0.000000  0.000000e+00  0.000000  0.000000e+00  0.000000e+00  0.000000e+00        NaN       NaN       NaN         NaN             NaN       NaN           NaN              NaN
52   0.000000  0.000000e+00  0.000000  0.000000e+00  0.000000e+00  0.000000e+00        NaN       NaN       NaN         NaN             NaN       NaN           NaN              NaN
53   0.000926 -3.782549e-04 -0.000926  3.783517e-04  4.586569e-08  9.682757e-08   0.001452  0.001452  0.001452    0.994542       -0.610063  0.994537     -0.616191         0.048385
54  -0.018177  2.677437e-16  0.018203  5.491037e-05  2.601018e-05  5.491037e-05   0.026440  0.026440  0.026440    0.992301       -0.890161  0.993725     -0.717325         0.881319
55  -0.015580 -3.700382e-16  0.015594  3.004966e-05  1.423405e-05  3.004966e-05   0.022629  0.022629  0.022629    0.993791       -0.716933  0.994701     -0.606526         0.754284
56   0.125313  7.469238e-02 -0.125313 -7.469212e-02  1.222511e-07  2.580857e-07   0.005616  0.005616  0.005616    0.999900       -0.010326  0.999898     -0.010389         0.187189
57   0.049207 -9.599308e-06 -0.049109  2.174836e-04  9.847150e-05  2.078843e-04   0.071033  0.071033  0.071033    0.999883       -0.013400  0.997891     -0.255961         2.367770
58   0.000000  0.000000e+00  0.000000  0.000000e+00  0.000000e+00  0.000000e+00        NaN       NaN       NaN         NaN             NaN       NaN           NaN              NaN
--------------------------------------------------

RES_TRAFO:
         p_hv_mw     q_hv_mvar       p_lv_mw     q_lv_mvar     pl_mw   ql_mvar       i_hv_ka       i_lv_ka  vm_hv_pu  va_hv_degree  vm_lv_pu  va_lv_degree  loading_percent
0   9.997580e-02  3.675549e-03 -9.996571e-02 -2.675987e-03  0.000010  0.001000  3.851415e-03  1.443678e-01  0.999807     -0.022319  0.999806     -0.022317         1.000627
1   9.995783e-06  9.995317e-04  1.454876e-11 -2.690073e-13  0.000010  0.001000  3.848197e-05  2.100731e-11  0.999791     -0.024265  0.999791     -0.024265         0.009998
2  -3.111579e-12 -2.485222e-10  9.874914e-06  9.874409e-04  0.000010  0.000987  9.626779e-12  1.434319e-03  0.993725     -0.717324  0.993725     -0.717325         0.009937
3   9.521475e-02  4.478918e-03 -9.520466e-02 -3.479169e-03  0.000010  0.001000  3.669237e-03  1.375217e-01  0.999900     -0.010326  0.999899     -0.010324         0.953296
4   1.183799e-01 -1.123506e-02 -1.183698e-01  1.223473e-02  0.000010  0.001000  4.577547e-03  1.717860e-01  0.999863     -0.016118  0.999862     -0.016125         1.190168
5   9.997482e-06  9.997021e-04  3.530286e-18  1.420909e-14  0.000010  0.001000  3.848525e-05  2.051160e-14  0.999876     -0.014236  0.999876     -0.014235         0.009999
6   4.921741e-02  9.901163e-04 -4.920739e-02  9.599308e-06  0.000010  0.001000  1.894984e-03  7.103309e-02  0.999883     -0.013400  0.999883     -0.013400         0.492331
7   0.000000e+00  0.000000e+00  0.000000e+00  0.000000e+00  0.000000  0.000000           NaN           NaN       NaN           NaN       NaN           NaN              NaN
8   0.000000e+00  0.000000e+00  0.000000e+00  0.000000e+00  0.000000  0.000000           NaN           NaN       NaN           NaN       NaN           NaN              NaN
9   7.388871e-02  4.846566e-03 -7.387865e-02 -3.846644e-03  0.000010  0.001000  2.850128e-03  1.067806e-01  0.999986     -0.001056  0.999986     -0.001053         0.740485
10  1.325464e+00  5.123408e-02 -1.325450e+00 -4.723411e-02  0.000014  0.004000  1.094041e-02  5.104914e-02  1.000000      0.000000  0.999997      0.000007         3.316135
--------------------------------------------------

RES_EXT_GRID:
       p_mw    q_mvar
0  1.325464  0.051234
--------------------------------------------------

RES_LOAD:
          p_mw        q_mvar
0     0.000000  0.000000e+00
1     0.000000  0.000000e+00
2     0.000000  0.000000e+00
3     0.000000  0.000000e+00
4     0.000000  0.000000e+00
5     0.000000  0.000000e+00
6     0.000000  0.000000e+00
7     0.000000  0.000000e+00
8     0.000000  0.000000e+00
9     0.000000  0.000000e+00
10    0.000000  0.000000e+00
11    0.000000  0.000000e+00
12    0.000000  0.000000e+00
13    0.000000  0.000000e+00
14    0.000000  0.000000e+00
15    0.000000  0.000000e+00
16    0.000000  0.000000e+00
17    0.000000  0.000000e+00
18    0.000000  0.000000e+00
19    0.000000  0.000000e+00
20    0.000000  0.000000e+00
21    0.000000  0.000000e+00
22    0.000000  0.000000e+00
23    0.000000  0.000000e+00
24    0.000000  0.000000e+00
25    0.000000  0.000000e+00
26    0.000000  0.000000e+00
27    0.000000  0.000000e+00
28    0.000000  0.000000e+00
29    0.000000  0.000000e+00
30    0.000000  0.000000e+00
31    0.000000  0.000000e+00
32    0.000000  0.000000e+00
33    0.000000  0.000000e+00
34    0.000000  0.000000e+00
35    0.000000  0.000000e+00
36    0.000000  0.000000e+00
37    0.000000  0.000000e+00
38    0.000000  0.000000e+00
39    0.000000  0.000000e+00
40    0.000000  0.000000e+00
41    0.000000  0.000000e+00
42    0.000000  0.000000e+00
43    0.000000  0.000000e+00
44    0.000000  0.000000e+00
45    0.000000  0.000000e+00
46    0.000000  0.000000e+00
47    0.125313  7.469212e-02
48    0.000000 -0.000000e+00
49    0.000000 -0.000000e+00
50    0.000000 -0.000000e+00
51    0.000000 -0.000000e+00
52    0.000000 -0.000000e+00
53    0.000000 -0.000000e+00
54    0.000000 -0.000000e+00
55    0.000000 -0.000000e+00
56    0.000000 -0.000000e+00
57    0.000000 -0.000000e+00
58    0.000000 -0.000000e+00
59    0.000000 -0.000000e+00
60    0.000000 -0.000000e+00
61    0.000000 -0.000000e+00
62    0.000000 -0.000000e+00
63    0.000000 -0.000000e+00
64    0.000000 -0.000000e+00
65    0.000000 -0.000000e+00
66    0.000000 -0.000000e+00
67    0.000000 -0.000000e+00
68    0.000000 -0.000000e+00
69    0.000000 -0.000000e+00
70    0.000000 -0.000000e+00
71    0.002526 -6.956584e-07
72    0.000000  0.000000e+00
73    0.000000  0.000000e+00
74    0.000000  0.000000e+00
75    0.000000  0.000000e+00
76    0.000000  0.000000e+00
77    0.000000  0.000000e+00
78    0.000000  0.000000e+00
79    0.000000  0.000000e+00
80    0.000000  0.000000e+00
81    0.000000 -0.000000e+00
82    0.000000 -0.000000e+00
83    0.000000 -0.000000e+00
84    0.000000  0.000000e+00
85    0.000000 -0.000000e+00
86    0.000000 -0.000000e+00
87    0.000000  0.000000e+00
88    0.000000  0.000000e+00
89    0.000000  0.000000e+00
90    0.000000  0.000000e+00
91    0.000000  0.000000e+00
92    0.000000  0.000000e+00
93    0.000000  0.000000e+00
94    0.000000  0.000000e+00
95    0.020774  0.000000e+00
96    0.000000 -0.000000e+00
97    0.000000 -0.000000e+00
98    0.000000 -0.000000e+00
99    0.000000 -0.000000e+00
100   0.000000 -0.000000e+00
101   0.000000 -0.000000e+00
102   0.000000 -0.000000e+00
103   0.000000  0.000000e+00
104   0.000000  0.000000e+00
105   0.000000 -0.000000e+00
...